version 3
run Sched1-0-20250309-17:38:06-14152
attr configname Sched1
attr datetime 20250309-17:38:06
attr datetimef 20250309-173806
attr experiment Sched1
attr inifile omnetpp.ini
attr iterationvars ""
attr iterationvarsd ""
attr iterationvarsf ""
attr measurement ""
attr network RadioSch2
attr processid 14152
attr repetition 0
attr replication #0
attr resultdir results
attr runnumber 0
attr seedset 0
config description "low job arrival rate"
config *.scalar-recording true
config *.vector-recording true
config **.user[*].generator.sendIaTime "0.2 ms"
config *.user[*].generator.networkLoad 0.8
config *.user[*].generator.packetsPerUser 4
config *.user[*].generator.channels 14
config *.user[*].generator.usersCount 7
config *.user[*].generator.MAX_Sim "10 s"
config *.usersCount 7
config network RadioSch2
config sim-time-limit 100h
config cpu-time-limit 300s
config simtime-resolution ns
config record-eventlog true

par RadioSch2.scheduler typename "\"Scheduler\""
par RadioSch2.scheduler schedulingPeriod 1ms
attr unit ms
par RadioSch2.scheduler gateSize 7
par RadioSch2.scheduler W_HP 1
attr mutable ""
par RadioSch2.scheduler W_MP 6
par RadioSch2.scheduler W_LP 2
par RadioSch2.flc typename "\"FLC\""
par RadioSch2.flc config "<FLC>...</FLC> at D:/Facultate/An 4/Semestrul 2/Fuzzy Logic and Applications/Project/Radio_Scheduler_with_Fuzzy_Logic_Controller/FLA_Project/\\conf.xml:2"
par RadioSch2.gen typename "\"GeneratorFLC\""
par RadioSch2.sink typename "\"Sink\""
par RadioSch2.sink gateSize 7
par RadioSch2.sink meanHPDelay -3250.71
attr mutable ""
par RadioSch2.sink meanMPDelay -1718.43
attr mutable ""
scalar RadioSch2.sink lifetime_user6:mean 15.634132294396
attr interpolationmode none
attr recordingmode mean
attr title "User 6 Packet Lifetime, mean"
attr unit s
scalar RadioSch2.sink lifetime_user6:max 57.485453536
attr interpolationmode none
attr recordingmode max
attr title "User 6 Packet Lifetime, max"
attr unit s
scalar RadioSch2.sink lifetime_user5:mean 9.762412276502
attr interpolationmode none
attr recordingmode mean
attr title "User 5 Packet Lifetime, mean"
attr unit s
scalar RadioSch2.sink lifetime_user5:max 54.823357215
attr interpolationmode none
attr recordingmode max
attr title "User 5 Packet Lifetime, max"
attr unit s
scalar RadioSch2.sink lifetime_user4:mean 1.1517439228107
attr interpolationmode none
attr recordingmode mean
attr title "User 4 Packet Lifetime, mean"
attr unit s
scalar RadioSch2.sink lifetime_user4:max 10.211165853
attr interpolationmode none
attr recordingmode max
attr title "User 4 Packet Lifetime, max"
attr unit s
scalar RadioSch2.sink lifetime_user3:mean 1.0503123798015
attr interpolationmode none
attr recordingmode mean
attr title "User 3 Packet Lifetime, mean"
attr unit s
scalar RadioSch2.sink lifetime_user3:max 8.917424559
attr interpolationmode none
attr recordingmode max
attr title "User 3 Packet Lifetime, max"
attr unit s
scalar RadioSch2.sink lifetime_user2:mean 0.97214484530612
attr interpolationmode none
attr recordingmode mean
attr title "User 2 Packet Lifetime, mean"
attr unit s
scalar RadioSch2.sink lifetime_user2:max 8.967370444
attr interpolationmode none
attr recordingmode max
attr title "User 2 Packet Lifetime, max"
attr unit s
scalar RadioSch2.sink lifetime_user1:mean 8.99136706909
attr interpolationmode none
attr recordingmode mean
attr title "User 1 Packet Lifetime, mean"
attr unit s
scalar RadioSch2.sink lifetime_user1:max 60.913867507
attr interpolationmode none
attr recordingmode max
attr title "User 1 Packet Lifetime, max"
attr unit s
scalar RadioSch2.sink lifetime_user0:mean 5.9204717591613
attr interpolationmode none
attr recordingmode mean
attr title "User 0 Packet Lifetime, mean"
attr unit s
scalar RadioSch2.sink lifetime_user0:max 32.501477412
attr interpolationmode none
attr recordingmode max
attr title "User 0 Packet Lifetime, max"
attr unit s
par RadioSch2.user[0].generator typename "\"Source\""
par RadioSch2.user[0].generator sendIaTime 0.2ms
attr unit ms
par RadioSch2.user[0].generator MAX_Sim 10000ms
attr unit ms
par RadioSch2.user[0].generator networkLoad 0.8
par RadioSch2.user[0].generator packetsPerUser 4
par RadioSch2.user[0].generator usersCount 7
par RadioSch2.user[0].generator channels 14
par RadioSch2.user[0].myqq typename "\"MyQ\""
par RadioSch2.user[0] typename "\"User\""
par RadioSch2.user[1].generator typename "\"Source\""
par RadioSch2.user[1].generator sendIaTime 0.2ms
attr unit ms
par RadioSch2.user[1].generator MAX_Sim 10000ms
attr unit ms
par RadioSch2.user[1].generator networkLoad 0.8
par RadioSch2.user[1].generator packetsPerUser 4
par RadioSch2.user[1].generator usersCount 7
par RadioSch2.user[1].generator channels 14
par RadioSch2.user[1].myqq typename "\"MyQ\""
par RadioSch2.user[1] typename "\"User\""
par RadioSch2.user[2].generator typename "\"Source\""
par RadioSch2.user[2].generator sendIaTime 0.2ms
attr unit ms
par RadioSch2.user[2].generator MAX_Sim 10000ms
attr unit ms
par RadioSch2.user[2].generator networkLoad 0.8
par RadioSch2.user[2].generator packetsPerUser 4
par RadioSch2.user[2].generator usersCount 7
par RadioSch2.user[2].generator channels 14
par RadioSch2.user[2].myqq typename "\"MyQ\""
par RadioSch2.user[2] typename "\"User\""
par RadioSch2.user[3].generator typename "\"Source\""
par RadioSch2.user[3].generator sendIaTime 0.2ms
attr unit ms
par RadioSch2.user[3].generator MAX_Sim 10000ms
attr unit ms
par RadioSch2.user[3].generator networkLoad 0.8
par RadioSch2.user[3].generator packetsPerUser 4
par RadioSch2.user[3].generator usersCount 7
par RadioSch2.user[3].generator channels 14
par RadioSch2.user[3].myqq typename "\"MyQ\""
par RadioSch2.user[3] typename "\"User\""
par RadioSch2.user[4].generator typename "\"Source\""
par RadioSch2.user[4].generator sendIaTime 0.2ms
attr unit ms
par RadioSch2.user[4].generator MAX_Sim 10000ms
attr unit ms
par RadioSch2.user[4].generator networkLoad 0.8
par RadioSch2.user[4].generator packetsPerUser 4
par RadioSch2.user[4].generator usersCount 7
par RadioSch2.user[4].generator channels 14
par RadioSch2.user[4].myqq typename "\"MyQ\""
par RadioSch2.user[4] typename "\"User\""
par RadioSch2.user[5].generator typename "\"Source\""
par RadioSch2.user[5].generator sendIaTime 0.2ms
attr unit ms
par RadioSch2.user[5].generator MAX_Sim 10000ms
attr unit ms
par RadioSch2.user[5].generator networkLoad 0.8
par RadioSch2.user[5].generator packetsPerUser 4
par RadioSch2.user[5].generator usersCount 7
par RadioSch2.user[5].generator channels 14
par RadioSch2.user[5].myqq typename "\"MyQ\""
par RadioSch2.user[5] typename "\"User\""
par RadioSch2.user[6].generator typename "\"Source\""
par RadioSch2.user[6].generator sendIaTime 0.2ms
attr unit ms
par RadioSch2.user[6].generator MAX_Sim 10000ms
attr unit ms
par RadioSch2.user[6].generator networkLoad 0.8
par RadioSch2.user[6].generator packetsPerUser 4
par RadioSch2.user[6].generator usersCount 7
par RadioSch2.user[6].generator channels 14
par RadioSch2.user[6].myqq typename "\"MyQ\""
par RadioSch2.user[6] typename "\"User\""
par RadioSch2 typename "\"RadioSch2\""
par RadioSch2 usersCount 7

